Circuit: * Z:\home\fsilva\RepositorioMercurial\trabajoprofesional\Simulaciones\descargaCapacitor.asc

WARNING: Specified period is not longer than the sum of Trise, Tfall, and Ton for v3.  Increasing period to 1.002
.OP point found by inspection.

Date: Mon Apr 22 17:06:45 2013
Total elapsed time: 4.499 seconds.

tnom = 27
temp = 27
method = modified trap
totiter = 3005103
traniter = 3005103
tranpoints = 1502550
accept = 1502543
rejected = 7
matrix size = 9
fillins = 0
solver = Normal
Matrix Compiler1:      13 opcodes  0.4/[0.4]/0.4
Matrix Compiler2: 477 bytes object code size  0.5/0.5/[0.5]


