Circuit: * Z:\home\fsilva\RepositorioMercurial\trabajoprofesional\Simulaciones\simulacionAntiRebote.asc

Limiting rise time of source v3 to 0.0001
Limiting fall time of source v3 to 0.0001
Limiting rise time of source v2 to 0.01
Limiting fall time of source v2 to 0.01
WARNING: Less than two connections to node IN.  This node is used by A1.
Direct Newton iteration for .op point succeeded.

Date: Wed Feb 27 16:52:38 2013
Total elapsed time: 0.401 seconds.

tnom = 27
temp = 27
method = modified trap
totiter = 62550
traniter = 62547
tranpoints = 30358
accept = 24015
rejected = 6343
matrix size = 9
fillins = 0
solver = Normal
Matrix Compiler1:      12 opcodes  0.3/[0.2]/0.5
Matrix Compiler2: 431 bytes object code size  0.3/0.6/[0.3]


