Circuit: * Z:\home\fanaur\RepositoriosMercurial\trabajoprofesional\Simulaciones\DescargaCapacitores\descargaCapacitor.asc

WARNING: Specified period is not longer than the sum of Trise, Tfall, and Ton for v3.  Increasing period to 10.002
WARNING: Specified period is not longer than the sum of Trise, Tfall, and Ton for v2.  Increasing period to 120.002
.OP point found by inspection.

Date: Sat Apr 20 20:06:12 2013
Total elapsed time: 5.878 seconds.

tnom = 27
temp = 27
method = modified trap
totiter = 260269
traniter = 260269
tranpoints = 130133
accept = 130113
rejected = 20
matrix size = 9
fillins = 0
solver = Normal
Matrix Compiler1: 206 bytes object code size  0.6/0.4/[0.2]
Matrix Compiler2: off  [0.4]/0.5/0.5


